12

C          1.41692       -0.20924        0.00581
C          0.50025       -1.34209       -0.00925
C         -0.86963       -1.08891       -0.01381
C         -1.40736        0.19826       -0.00470
C         -0.49069        1.33111        0.01019
C          0.87920        1.07792        0.01482
H          2.49493       -0.36149        0.00951
H          0.87518       -2.36425       -0.01631
H         -1.55719       -1.94110       -0.02502
H         -2.48536        0.35051       -0.00928
H         -0.86562        2.35326        0.01797
H          1.56675        1.93012        0.02610
